*SPEF "ieee 1481-1999"
*DESIGN "user_project_wrapper"
*DATE "11:11:11 Fri 11 11, 1111"
*VENDOR "OpenRCX"
*PROGRAM "Parallel Extraction"
*VERSION "1.0"
*DESIGN_FLOW "NAME_SCOPE LOCAL" "PIN_CAP NONE"
*DIVIDER /
*DELIMITER :
*BUS_DELIMITER []
*T_UNIT 1 NS
*C_UNIT 1 PF
*R_UNIT 1 OHM
*L_UNIT 1 HENRY

*NAME_MAP
*1 io_in[0]
*2 io_in[10]
*3 io_in[11]
*4 io_in[12]
*5 io_in[13]
*6 io_in[14]
*7 io_in[15]
*8 io_in[16]
*9 io_in[17]
*10 io_in[18]
*11 io_in[19]
*12 io_in[1]
*13 io_in[20]
*14 io_in[21]
*15 io_in[22]
*16 io_in[23]
*17 io_in[24]
*18 io_in[25]
*19 io_in[26]
*20 io_in[27]
*21 io_in[28]
*22 io_in[29]
*23 io_in[2]
*24 io_in[30]
*25 io_in[31]
*26 io_in[32]
*27 io_in[33]
*28 io_in[34]
*29 io_in[35]
*30 io_in[36]
*31 io_in[37]
*32 io_in[3]
*33 io_in[4]
*34 io_in[5]
*35 io_in[6]
*36 io_in[7]
*37 io_in[8]
*38 io_in[9]
*39 io_oeb[0]
*40 io_oeb[10]
*41 io_oeb[11]
*42 io_oeb[12]
*43 io_oeb[13]
*44 io_oeb[14]
*45 io_oeb[15]
*46 io_oeb[16]
*47 io_oeb[17]
*48 io_oeb[18]
*49 io_oeb[19]
*50 io_oeb[1]
*51 io_oeb[20]
*52 io_oeb[21]
*53 io_oeb[22]
*54 io_oeb[23]
*55 io_oeb[24]
*56 io_oeb[25]
*57 io_oeb[26]
*58 io_oeb[27]
*59 io_oeb[28]
*60 io_oeb[29]
*61 io_oeb[2]
*62 io_oeb[30]
*63 io_oeb[31]
*64 io_oeb[32]
*65 io_oeb[33]
*66 io_oeb[34]
*67 io_oeb[35]
*68 io_oeb[36]
*69 io_oeb[37]
*70 io_oeb[3]
*71 io_oeb[4]
*72 io_oeb[5]
*73 io_oeb[6]
*74 io_oeb[7]
*75 io_oeb[8]
*76 io_oeb[9]
*77 io_out[0]
*78 io_out[10]
*79 io_out[11]
*80 io_out[12]
*81 io_out[13]
*82 io_out[14]
*83 io_out[15]
*84 io_out[16]
*85 io_out[17]
*86 io_out[18]
*87 io_out[19]
*88 io_out[1]
*89 io_out[20]
*90 io_out[21]
*91 io_out[22]
*92 io_out[23]
*93 io_out[24]
*94 io_out[25]
*95 io_out[26]
*96 io_out[27]
*97 io_out[28]
*98 io_out[29]
*99 io_out[2]
*100 io_out[30]
*101 io_out[31]
*102 io_out[32]
*103 io_out[33]
*104 io_out[34]
*105 io_out[35]
*106 io_out[36]
*107 io_out[37]
*108 io_out[3]
*109 io_out[4]
*110 io_out[5]
*111 io_out[6]
*112 io_out[7]
*113 io_out[8]
*114 io_out[9]
*115 la_data_in[0]
*116 la_data_in[10]
*117 la_data_in[11]
*118 la_data_in[12]
*119 la_data_in[13]
*120 la_data_in[14]
*121 la_data_in[15]
*122 la_data_in[16]
*123 la_data_in[17]
*124 la_data_in[18]
*125 la_data_in[19]
*126 la_data_in[1]
*127 la_data_in[20]
*128 la_data_in[21]
*129 la_data_in[22]
*130 la_data_in[23]
*131 la_data_in[24]
*132 la_data_in[25]
*133 la_data_in[26]
*134 la_data_in[27]
*135 la_data_in[28]
*136 la_data_in[29]
*137 la_data_in[2]
*138 la_data_in[30]
*139 la_data_in[31]
*140 la_data_in[32]
*141 la_data_in[33]
*142 la_data_in[34]
*143 la_data_in[35]
*144 la_data_in[36]
*145 la_data_in[37]
*146 la_data_in[38]
*147 la_data_in[39]
*148 la_data_in[3]
*149 la_data_in[40]
*150 la_data_in[41]
*151 la_data_in[42]
*152 la_data_in[43]
*153 la_data_in[44]
*154 la_data_in[45]
*155 la_data_in[46]
*156 la_data_in[47]
*157 la_data_in[48]
*158 la_data_in[49]
*159 la_data_in[4]
*160 la_data_in[50]
*161 la_data_in[51]
*162 la_data_in[52]
*163 la_data_in[53]
*164 la_data_in[54]
*165 la_data_in[55]
*166 la_data_in[56]
*167 la_data_in[57]
*168 la_data_in[58]
*169 la_data_in[59]
*170 la_data_in[5]
*171 la_data_in[60]
*172 la_data_in[61]
*173 la_data_in[62]
*174 la_data_in[63]
*175 la_data_in[6]
*176 la_data_in[7]
*177 la_data_in[8]
*178 la_data_in[9]
*179 la_data_out[0]
*180 la_data_out[10]
*181 la_data_out[11]
*182 la_data_out[12]
*183 la_data_out[13]
*184 la_data_out[14]
*185 la_data_out[15]
*186 la_data_out[16]
*187 la_data_out[17]
*188 la_data_out[18]
*189 la_data_out[19]
*190 la_data_out[1]
*191 la_data_out[20]
*192 la_data_out[21]
*193 la_data_out[22]
*194 la_data_out[23]
*195 la_data_out[24]
*196 la_data_out[25]
*197 la_data_out[26]
*198 la_data_out[27]
*199 la_data_out[28]
*200 la_data_out[29]
*201 la_data_out[2]
*202 la_data_out[30]
*203 la_data_out[31]
*204 la_data_out[32]
*205 la_data_out[33]
*206 la_data_out[34]
*207 la_data_out[35]
*208 la_data_out[36]
*209 la_data_out[37]
*210 la_data_out[38]
*211 la_data_out[39]
*212 la_data_out[3]
*213 la_data_out[40]
*214 la_data_out[41]
*215 la_data_out[42]
*216 la_data_out[43]
*217 la_data_out[44]
*218 la_data_out[45]
*219 la_data_out[46]
*220 la_data_out[47]
*221 la_data_out[48]
*222 la_data_out[49]
*223 la_data_out[4]
*224 la_data_out[50]
*225 la_data_out[51]
*226 la_data_out[52]
*227 la_data_out[53]
*228 la_data_out[54]
*229 la_data_out[55]
*230 la_data_out[56]
*231 la_data_out[57]
*232 la_data_out[58]
*233 la_data_out[59]
*234 la_data_out[5]
*235 la_data_out[60]
*236 la_data_out[61]
*237 la_data_out[62]
*238 la_data_out[63]
*239 la_data_out[6]
*240 la_data_out[7]
*241 la_data_out[8]
*242 la_data_out[9]
*243 la_oenb[0]
*244 la_oenb[10]
*245 la_oenb[11]
*246 la_oenb[12]
*247 la_oenb[13]
*248 la_oenb[14]
*249 la_oenb[15]
*250 la_oenb[16]
*251 la_oenb[17]
*252 la_oenb[18]
*253 la_oenb[19]
*254 la_oenb[1]
*255 la_oenb[20]
*256 la_oenb[21]
*257 la_oenb[22]
*258 la_oenb[23]
*259 la_oenb[24]
*260 la_oenb[25]
*261 la_oenb[26]
*262 la_oenb[27]
*263 la_oenb[28]
*264 la_oenb[29]
*265 la_oenb[2]
*266 la_oenb[30]
*267 la_oenb[31]
*268 la_oenb[32]
*269 la_oenb[33]
*270 la_oenb[34]
*271 la_oenb[35]
*272 la_oenb[36]
*273 la_oenb[37]
*274 la_oenb[38]
*275 la_oenb[39]
*276 la_oenb[3]
*277 la_oenb[40]
*278 la_oenb[41]
*279 la_oenb[42]
*280 la_oenb[43]
*281 la_oenb[44]
*282 la_oenb[45]
*283 la_oenb[46]
*284 la_oenb[47]
*285 la_oenb[48]
*286 la_oenb[49]
*287 la_oenb[4]
*288 la_oenb[50]
*289 la_oenb[51]
*290 la_oenb[52]
*291 la_oenb[53]
*292 la_oenb[54]
*293 la_oenb[55]
*294 la_oenb[56]
*295 la_oenb[57]
*296 la_oenb[58]
*297 la_oenb[59]
*298 la_oenb[5]
*299 la_oenb[60]
*300 la_oenb[61]
*301 la_oenb[62]
*302 la_oenb[63]
*303 la_oenb[6]
*304 la_oenb[7]
*305 la_oenb[8]
*306 la_oenb[9]
*307 user_clock2
*308 user_irq[0]
*309 user_irq[1]
*310 user_irq[2]
*313 wb_clk_i
*314 wb_rst_i
*315 wbs_ack_o
*316 wbs_adr_i[0]
*317 wbs_adr_i[10]
*318 wbs_adr_i[11]
*319 wbs_adr_i[12]
*320 wbs_adr_i[13]
*321 wbs_adr_i[14]
*322 wbs_adr_i[15]
*323 wbs_adr_i[16]
*324 wbs_adr_i[17]
*325 wbs_adr_i[18]
*326 wbs_adr_i[19]
*327 wbs_adr_i[1]
*328 wbs_adr_i[20]
*329 wbs_adr_i[21]
*330 wbs_adr_i[22]
*331 wbs_adr_i[23]
*332 wbs_adr_i[24]
*333 wbs_adr_i[25]
*334 wbs_adr_i[26]
*335 wbs_adr_i[27]
*336 wbs_adr_i[28]
*337 wbs_adr_i[29]
*338 wbs_adr_i[2]
*339 wbs_adr_i[30]
*340 wbs_adr_i[31]
*341 wbs_adr_i[3]
*342 wbs_adr_i[4]
*343 wbs_adr_i[5]
*344 wbs_adr_i[6]
*345 wbs_adr_i[7]
*346 wbs_adr_i[8]
*347 wbs_adr_i[9]
*348 wbs_cyc_i
*349 wbs_dat_i[0]
*350 wbs_dat_i[10]
*351 wbs_dat_i[11]
*352 wbs_dat_i[12]
*353 wbs_dat_i[13]
*354 wbs_dat_i[14]
*355 wbs_dat_i[15]
*356 wbs_dat_i[16]
*357 wbs_dat_i[17]
*358 wbs_dat_i[18]
*359 wbs_dat_i[19]
*360 wbs_dat_i[1]
*361 wbs_dat_i[20]
*362 wbs_dat_i[21]
*363 wbs_dat_i[22]
*364 wbs_dat_i[23]
*365 wbs_dat_i[24]
*366 wbs_dat_i[25]
*367 wbs_dat_i[26]
*368 wbs_dat_i[27]
*369 wbs_dat_i[28]
*370 wbs_dat_i[29]
*371 wbs_dat_i[2]
*372 wbs_dat_i[30]
*373 wbs_dat_i[31]
*374 wbs_dat_i[3]
*375 wbs_dat_i[4]
*376 wbs_dat_i[5]
*377 wbs_dat_i[6]
*378 wbs_dat_i[7]
*379 wbs_dat_i[8]
*380 wbs_dat_i[9]
*381 wbs_dat_o[0]
*382 wbs_dat_o[10]
*383 wbs_dat_o[11]
*384 wbs_dat_o[12]
*385 wbs_dat_o[13]
*386 wbs_dat_o[14]
*387 wbs_dat_o[15]
*388 wbs_dat_o[16]
*389 wbs_dat_o[17]
*390 wbs_dat_o[18]
*391 wbs_dat_o[19]
*392 wbs_dat_o[1]
*393 wbs_dat_o[20]
*394 wbs_dat_o[21]
*395 wbs_dat_o[22]
*396 wbs_dat_o[23]
*397 wbs_dat_o[24]
*398 wbs_dat_o[25]
*399 wbs_dat_o[26]
*400 wbs_dat_o[27]
*401 wbs_dat_o[28]
*402 wbs_dat_o[29]
*403 wbs_dat_o[2]
*404 wbs_dat_o[30]
*405 wbs_dat_o[31]
*406 wbs_dat_o[3]
*407 wbs_dat_o[4]
*408 wbs_dat_o[5]
*409 wbs_dat_o[6]
*410 wbs_dat_o[7]
*411 wbs_dat_o[8]
*412 wbs_dat_o[9]
*413 wbs_sel_i[0]
*414 wbs_sel_i[1]
*415 wbs_sel_i[2]
*416 wbs_sel_i[3]
*417 wbs_stb_i
*418 wbs_we_i
*419 mprj

*PORTS
io_in[0] I
io_in[10] I
io_in[11] I
io_in[12] I
io_in[13] I
io_in[14] I
io_in[15] I
io_in[16] I
io_in[17] I
io_in[18] I
io_in[19] I
io_in[1] I
io_in[20] I
io_in[21] I
io_in[22] I
io_in[23] I
io_in[24] I
io_in[25] I
io_in[26] I
io_in[27] I
io_in[28] I
io_in[29] I
io_in[2] I
io_in[30] I
io_in[31] I
io_in[32] I
io_in[33] I
io_in[34] I
io_in[35] I
io_in[36] I
io_in[37] I
io_in[3] I
io_in[4] I
io_in[5] I
io_in[6] I
io_in[7] I
io_in[8] I
io_in[9] I
io_oeb[0] O
io_oeb[10] O
io_oeb[11] O
io_oeb[12] O
io_oeb[13] O
io_oeb[14] O
io_oeb[15] O
io_oeb[16] O
io_oeb[17] O
io_oeb[18] O
io_oeb[19] O
io_oeb[1] O
io_oeb[20] O
io_oeb[21] O
io_oeb[22] O
io_oeb[23] O
io_oeb[24] O
io_oeb[25] O
io_oeb[26] O
io_oeb[27] O
io_oeb[28] O
io_oeb[29] O
io_oeb[2] O
io_oeb[30] O
io_oeb[31] O
io_oeb[32] O
io_oeb[33] O
io_oeb[34] O
io_oeb[35] O
io_oeb[36] O
io_oeb[37] O
io_oeb[3] O
io_oeb[4] O
io_oeb[5] O
io_oeb[6] O
io_oeb[7] O
io_oeb[8] O
io_oeb[9] O
io_out[0] O
io_out[10] O
io_out[11] O
io_out[12] O
io_out[13] O
io_out[14] O
io_out[15] O
io_out[16] O
io_out[17] O
io_out[18] O
io_out[19] O
io_out[1] O
io_out[20] O
io_out[21] O
io_out[22] O
io_out[23] O
io_out[24] O
io_out[25] O
io_out[26] O
io_out[27] O
io_out[28] O
io_out[29] O
io_out[2] O
io_out[30] O
io_out[31] O
io_out[32] O
io_out[33] O
io_out[34] O
io_out[35] O
io_out[36] O
io_out[37] O
io_out[3] O
io_out[4] O
io_out[5] O
io_out[6] O
io_out[7] O
io_out[8] O
io_out[9] O
la_data_in[0] I
la_data_in[10] I
la_data_in[11] I
la_data_in[12] I
la_data_in[13] I
la_data_in[14] I
la_data_in[15] I
la_data_in[16] I
la_data_in[17] I
la_data_in[18] I
la_data_in[19] I
la_data_in[1] I
la_data_in[20] I
la_data_in[21] I
la_data_in[22] I
la_data_in[23] I
la_data_in[24] I
la_data_in[25] I
la_data_in[26] I
la_data_in[27] I
la_data_in[28] I
la_data_in[29] I
la_data_in[2] I
la_data_in[30] I
la_data_in[31] I
la_data_in[32] I
la_data_in[33] I
la_data_in[34] I
la_data_in[35] I
la_data_in[36] I
la_data_in[37] I
la_data_in[38] I
la_data_in[39] I
la_data_in[3] I
la_data_in[40] I
la_data_in[41] I
la_data_in[42] I
la_data_in[43] I
la_data_in[44] I
la_data_in[45] I
la_data_in[46] I
la_data_in[47] I
la_data_in[48] I
la_data_in[49] I
la_data_in[4] I
la_data_in[50] I
la_data_in[51] I
la_data_in[52] I
la_data_in[53] I
la_data_in[54] I
la_data_in[55] I
la_data_in[56] I
la_data_in[57] I
la_data_in[58] I
la_data_in[59] I
la_data_in[5] I
la_data_in[60] I
la_data_in[61] I
la_data_in[62] I
la_data_in[63] I
la_data_in[6] I
la_data_in[7] I
la_data_in[8] I
la_data_in[9] I
la_data_out[0] O
la_data_out[10] O
la_data_out[11] O
la_data_out[12] O
la_data_out[13] O
la_data_out[14] O
la_data_out[15] O
la_data_out[16] O
la_data_out[17] O
la_data_out[18] O
la_data_out[19] O
la_data_out[1] O
la_data_out[20] O
la_data_out[21] O
la_data_out[22] O
la_data_out[23] O
la_data_out[24] O
la_data_out[25] O
la_data_out[26] O
la_data_out[27] O
la_data_out[28] O
la_data_out[29] O
la_data_out[2] O
la_data_out[30] O
la_data_out[31] O
la_data_out[32] O
la_data_out[33] O
la_data_out[34] O
la_data_out[35] O
la_data_out[36] O
la_data_out[37] O
la_data_out[38] O
la_data_out[39] O
la_data_out[3] O
la_data_out[40] O
la_data_out[41] O
la_data_out[42] O
la_data_out[43] O
la_data_out[44] O
la_data_out[45] O
la_data_out[46] O
la_data_out[47] O
la_data_out[48] O
la_data_out[49] O
la_data_out[4] O
la_data_out[50] O
la_data_out[51] O
la_data_out[52] O
la_data_out[53] O
la_data_out[54] O
la_data_out[55] O
la_data_out[56] O
la_data_out[57] O
la_data_out[58] O
la_data_out[59] O
la_data_out[5] O
la_data_out[60] O
la_data_out[61] O
la_data_out[62] O
la_data_out[63] O
la_data_out[6] O
la_data_out[7] O
la_data_out[8] O
la_data_out[9] O
la_oenb[0] I
la_oenb[10] I
la_oenb[11] I
la_oenb[12] I
la_oenb[13] I
la_oenb[14] I
la_oenb[15] I
la_oenb[16] I
la_oenb[17] I
la_oenb[18] I
la_oenb[19] I
la_oenb[1] I
la_oenb[20] I
la_oenb[21] I
la_oenb[22] I
la_oenb[23] I
la_oenb[24] I
la_oenb[25] I
la_oenb[26] I
la_oenb[27] I
la_oenb[28] I
la_oenb[29] I
la_oenb[2] I
la_oenb[30] I
la_oenb[31] I
la_oenb[32] I
la_oenb[33] I
la_oenb[34] I
la_oenb[35] I
la_oenb[36] I
la_oenb[37] I
la_oenb[38] I
la_oenb[39] I
la_oenb[3] I
la_oenb[40] I
la_oenb[41] I
la_oenb[42] I
la_oenb[43] I
la_oenb[44] I
la_oenb[45] I
la_oenb[46] I
la_oenb[47] I
la_oenb[48] I
la_oenb[49] I
la_oenb[4] I
la_oenb[50] I
la_oenb[51] I
la_oenb[52] I
la_oenb[53] I
la_oenb[54] I
la_oenb[55] I
la_oenb[56] I
la_oenb[57] I
la_oenb[58] I
la_oenb[59] I
la_oenb[5] I
la_oenb[60] I
la_oenb[61] I
la_oenb[62] I
la_oenb[63] I
la_oenb[6] I
la_oenb[7] I
la_oenb[8] I
la_oenb[9] I
user_clock2 I
user_irq[0] O
user_irq[1] O
user_irq[2] O
wb_clk_i I
wb_rst_i I
wbs_ack_o O
wbs_adr_i[0] I
wbs_adr_i[10] I
wbs_adr_i[11] I
wbs_adr_i[12] I
wbs_adr_i[13] I
wbs_adr_i[14] I
wbs_adr_i[15] I
wbs_adr_i[16] I
wbs_adr_i[17] I
wbs_adr_i[18] I
wbs_adr_i[19] I
wbs_adr_i[1] I
wbs_adr_i[20] I
wbs_adr_i[21] I
wbs_adr_i[22] I
wbs_adr_i[23] I
wbs_adr_i[24] I
wbs_adr_i[25] I
wbs_adr_i[26] I
wbs_adr_i[27] I
wbs_adr_i[28] I
wbs_adr_i[29] I
wbs_adr_i[2] I
wbs_adr_i[30] I
wbs_adr_i[31] I
wbs_adr_i[3] I
wbs_adr_i[4] I
wbs_adr_i[5] I
wbs_adr_i[6] I
wbs_adr_i[7] I
wbs_adr_i[8] I
wbs_adr_i[9] I
wbs_cyc_i I
wbs_dat_i[0] I
wbs_dat_i[10] I
wbs_dat_i[11] I
wbs_dat_i[12] I
wbs_dat_i[13] I
wbs_dat_i[14] I
wbs_dat_i[15] I
wbs_dat_i[16] I
wbs_dat_i[17] I
wbs_dat_i[18] I
wbs_dat_i[19] I
wbs_dat_i[1] I
wbs_dat_i[20] I
wbs_dat_i[21] I
wbs_dat_i[22] I
wbs_dat_i[23] I
wbs_dat_i[24] I
wbs_dat_i[25] I
wbs_dat_i[26] I
wbs_dat_i[27] I
wbs_dat_i[28] I
wbs_dat_i[29] I
wbs_dat_i[2] I
wbs_dat_i[30] I
wbs_dat_i[31] I
wbs_dat_i[3] I
wbs_dat_i[4] I
wbs_dat_i[5] I
wbs_dat_i[6] I
wbs_dat_i[7] I
wbs_dat_i[8] I
wbs_dat_i[9] I
wbs_dat_o[0] O
wbs_dat_o[10] O
wbs_dat_o[11] O
wbs_dat_o[12] O
wbs_dat_o[13] O
wbs_dat_o[14] O
wbs_dat_o[15] O
wbs_dat_o[16] O
wbs_dat_o[17] O
wbs_dat_o[18] O
wbs_dat_o[19] O
wbs_dat_o[1] O
wbs_dat_o[20] O
wbs_dat_o[21] O
wbs_dat_o[22] O
wbs_dat_o[23] O
wbs_dat_o[24] O
wbs_dat_o[25] O
wbs_dat_o[26] O
wbs_dat_o[27] O
wbs_dat_o[28] O
wbs_dat_o[29] O
wbs_dat_o[2] O
wbs_dat_o[30] O
wbs_dat_o[31] O
wbs_dat_o[3] O
wbs_dat_o[4] O
wbs_dat_o[5] O
wbs_dat_o[6] O
wbs_dat_o[7] O
wbs_dat_o[8] O
wbs_dat_o[9] O
wbs_sel_i[0] I
wbs_sel_i[1] I
wbs_sel_i[2] I
wbs_sel_i[3] I
wbs_stb_i I
wbs_we_i I

*D_NET *115 0.146577
*CONN
*P la_data_in[0] I
*I *419:la_data_in[0] I *D user_proj_example
*CAP
1 la_data_in[0] 0.00160266
2 *419:la_data_in[0] 0.000454573
3 *115:23 0.00716559
4 *115:21 0.0082031
5 *115:15 0.0124675
6 *115:13 0.0125781
7 *115:13 *419:la_oenb[21] 7.55787e-05
8 *115:15 *116:15 0.000343161
9 *115:15 *120:23 0.0493834
10 *115:15 *148:15 0
11 *115:15 *175:15 0.0184885
12 *115:15 *184:12 0
13 *115:23 *179:15 8.62241e-05
14 *115:23 *243:29 0.0357287
15 *115:23 *298:13 0
*RES
1 la_data_in[0] *115:13 22.1175 
2 *115:13 *115:15 78.3327 
3 *115:15 *115:21 16.6725 
4 *115:21 *115:23 97.47 
5 *115:23 *419:la_data_in[0] 7.965 
*END

*D_NET *116 0.201196
*CONN
*P la_data_in[10] I
*I *419:la_data_in[10] I *D user_proj_example
*CAP
1 la_data_in[10] 0.00142261
2 *419:la_data_in[10] 0.000427833
3 *116:15 0.00317675
4 *116:13 0.00417152
5 *116:13 *419:la_oenb[28] 7.53731e-05
6 *116:15 *118:15 0.087358
7 *116:15 *120:23 0.000577789
8 *116:15 *126:15 0.064666
9 *116:15 *130:19 0.0302018
10 *116:15 *135:17 0.000511065
11 *116:15 *159:15 0.00701398
12 *116:15 *175:15 0.000668633
13 *116:15 *255:15 0.000581874
14 *115:15 *116:15 0.000343161
*RES
1 la_data_in[10] *116:13 21.375 
2 *116:13 *116:15 244.17 
3 *116:15 *419:la_data_in[10] 15.93 
*END

*D_NET *117 0.199774
*CONN
*P la_data_in[11] I
*I *419:la_data_in[11] I *D user_proj_example
*CAP
1 la_data_in[11] 0.00070708
2 *419:la_data_in[11] 0.00157177
3 *117:9 0.00250476
4 *117:7 0.00164007
5 *419:la_data_in[11] *137:9 0
6 *419:la_data_in[11] *181:12 0.000466681
7 *419:la_data_in[11] *234:9 0.00714732
8 *117:7 *419:la_oenb[29] 0
9 *117:9 *119:9 0.0857299
10 *117:9 *180:13 0.0864368
11 *117:9 *181:12 0.0105362
12 *117:9 *199:12 0.000422413
13 *117:9 *200:8 0.00112197
14 *117:9 *234:9 0.00148859
*RES
1 la_data_in[11] *117:7 8.505 
2 *117:7 *117:9 222.39 
3 *117:9 *419:la_data_in[11] 33.165 
*END

*D_NET *118 0.190502
*CONN
*P la_data_in[12] I
*I *419:la_data_in[12] I *D user_proj_example
*CAP
1 la_data_in[12] 0.00155008
2 *419:la_data_in[12] 0.000472458
3 *118:15 0.00363616
4 *118:13 0.00471378
5 *118:13 *202:7 5.71362e-06
6 *118:15 *120:23 0.00153458
7 *118:15 *121:23 0.0790956
8 *118:15 *130:19 0.0028171
9 *118:15 *136:25 0.000703897
10 *118:15 *138:23 0.00131942
11 *118:15 *159:15 0.000978381
12 *118:15 *175:15 0.00631708
13 *116:15 *118:15 0.087358
*RES
1 la_data_in[12] *118:13 21.555 
2 *118:13 *118:15 236.61 
3 *118:15 *419:la_data_in[12] 16.11 
*END

*D_NET *119 0.186566
*CONN
*P la_data_in[13] I
*I *419:la_data_in[13] I *D user_proj_example
*CAP
1 la_data_in[13] 0.000668128
2 *419:la_data_in[13] 0.000126594
3 *119:9 0.00341022
4 *119:7 0.00395175
5 *119:9 *123:9 0.0721654
6 *119:9 *137:9 0
7 *119:9 *181:12 0.00452806
8 *119:9 *191:12 0.00482169
9 *119:9 *200:8 0.00182433
10 *119:9 *202:9 0.00320017
11 *119:9 *234:9 0.00613961
12 *117:9 *119:9 0.0857299
*RES
1 la_data_in[13] *119:7 8.325 
2 *119:7 *119:9 232.83 
3 *119:9 *419:la_data_in[13] 5.085 
*END

*D_NET *120 0.184131
*CONN
*P la_data_in[14] I
*I *419:la_data_in[14] I *D user_proj_example
*CAP
1 la_data_in[14] 0.0017238
2 *419:la_data_in[14] 0.00055376
3 *120:23 0.010624
4 *120:21 0.011794
5 *120:21 *419:la_oenb[31] 4.11574e-05
6 *120:23 *121:23 0.00393658
7 *120:23 *125:15 0.00714732
8 *120:23 *130:19 0.000536151
9 *120:23 *135:17 0.00286973
10 *120:23 *136:25 0.0164197
11 *120:23 *175:15 0.0765978
12 *120:23 *184:12 0
13 *120:23 *194:12 0
14 *120:23 *197:12 0.000390893
15 *115:15 *120:23 0.0493834
16 *116:15 *120:23 0.000577789
17 *118:15 *120:23 0.00153458
*RES
1 la_data_in[14] *120:21 23.6282 
2 *120:21 *120:23 96.7364 
3 *120:23 *419:la_data_in[14] 16.3832 
*END

*D_NET *121 0.177911
*CONN
*P la_data_in[15] I
*I *419:la_data_in[15] I *D user_proj_example
*CAP
1 la_data_in[15] 0.00181307
2 *419:la_data_in[15] 0.000565157
3 *121:23 0.00471859
4 *121:21 0.00596651
5 *121:21 *204:13 0
6 *121:21 *248:13 0
7 *121:21 *250:13 0.000264644
8 *121:23 *125:15 0.0687277
9 *121:23 *136:25 0.00144203
10 *121:23 *138:23 0.00165477
11 *121:23 *139:17 0.00654383
12 *121:23 *175:15 0.00318213
13 *118:15 *121:23 0.0790956
14 *120:23 *121:23 0.00393658
*RES
1 la_data_in[15] *121:21 24.075 
2 *121:21 *121:23 223.65 
3 *121:23 *419:la_data_in[15] 16.29 
*END

*D_NET *122 0.107678
*CONN
*P la_data_in[16] I
*I *419:la_data_in[16] I *D user_proj_example
*CAP
1 la_data_in[16] 0.00309293
2 *419:la_data_in[16] 0.000186181
3 *122:21 0.0100592
4 *122:19 0.0129659
5 *122:19 la_data_out[12] 0.000179426
6 *122:19 *419:la_oenb[30] 0.00438656
7 *122:19 *419:la_oenb[32] 0.0012446
8 *122:19 *131:9 0.00352584
9 *122:19 *183:22 0.00105782
10 *122:19 *193:12 4.58936e-06
11 *122:19 *203:12 4.21855e-05
12 *122:19 *246:11 6.06477e-05
13 *122:19 *258:15 0.00017598
14 *122:21 la_data_out[12] 0.000101626
15 *122:21 la_data_out[9] 0.000117316
16 *122:21 *131:9 0
17 *122:21 *183:12 0.015635
18 *122:21 *183:22 0.00921
19 *122:21 *243:15 0.0305699
20 *122:21 *245:11 0.000113836
21 *122:21 *276:21 0.00568595
22 *122:21 *305:11 0.00926215
*RES
1 la_data_in[16] *122:19 47.115 
2 *122:19 *122:21 185.58 
3 *122:21 *419:la_data_in[16] 14.31 
*END

*D_NET *123 0.182931
*CONN
*P la_data_in[17] I
*I *419:la_data_in[17] I *D user_proj_example
*CAP
1 la_data_in[17] 0.000629176
2 *419:la_data_in[17] 0.000165546
3 *123:9 0.00133328
4 *123:7 0.00179691
5 *123:7 *419:la_oenb[33] 0
6 *123:9 *137:9 0
7 *123:9 *140:9 0.00937921
8 *123:9 *181:12 0.0015927
9 *123:9 *187:9 0.0852033
10 *123:9 *191:12 0.0081582
11 *123:9 *202:9 0.00250688
12 *119:9 *123:9 0.0721654
*RES
1 la_data_in[17] *123:7 8.145 
2 *123:7 *123:9 217.71 
3 *123:9 *419:la_data_in[17] 5.265 
*END

*D_NET *124 0.0943618
*CONN
*P la_data_in[18] I
*I *419:la_data_in[18] I *D user_proj_example
*CAP
1 la_data_in[18] 0.00343157
2 *419:la_data_in[18] 0.00207885
3 *124:17 0.0150901
4 *124:15 0.0164428
5 *419:la_data_in[18] *170:31 0
6 *419:la_data_in[18] *287:13 0.000109323
7 *419:la_data_in[18] *303:11 0.000100647
8 *124:15 *131:9 0.00136502
9 *124:15 *206:6 0.00090332
10 *124:15 *258:15 0.000335899
11 *124:15 *266:15 0.000842922
12 *124:17 *128:17 0
13 *124:17 *189:15 0.0194584
14 *124:17 *201:17 0.0332635
15 *124:17 *204:15 0
16 *124:17 *205:15 0.000939443
17 *124:17 *240:14 0
*RES
1 la_data_in[18] *124:15 42.6311 
2 *124:15 *124:17 86.58 
3 *124:17 *419:la_data_in[18] 27.6461 
*END

*D_NET *125 0.117028
*CONN
*P la_data_in[19] I
*I *419:la_data_in[19] I *D user_proj_example
*CAP
1 la_data_in[19] 0.00156858
2 *419:la_data_in[19] 0.000596424
3 *125:15 0.0145405
4 *125:13 0.0155126
5 *125:13 la_data_out[19] 0
6 *125:13 *207:7 0
7 *125:15 *136:25 0.000669244
8 *125:15 *139:17 0.00703822
9 *125:15 *141:21 0.00122729
10 *120:23 *125:15 0.00714732
11 *121:23 *125:15 0.0687277
*RES
1 la_data_in[19] *125:13 21.915 
2 *125:13 *125:15 210.15 
3 *125:15 *419:la_data_in[19] 16.47 
*END

*D_NET *126 0.135395
*CONN
*P la_data_in[1] I
*I *419:la_data_in[1] I *D user_proj_example
*CAP
1 la_data_in[1] 0.0014183
2 *419:la_data_in[1] 0.00104195
3 *126:15 0.0221982
4 *126:13 0.0225745
5 *126:13 *193:10 0
6 *126:15 *159:15 0.0136382
7 *126:15 *183:12 0.00686403
8 *126:15 *243:15 0
9 *126:15 *255:15 0.00299379
10 *126:15 *305:11 0
11 *116:15 *126:15 0.064666
*RES
1 la_data_in[1] *126:13 21.195 
2 *126:13 *126:15 273.33 
3 *126:15 *419:la_data_in[1] 21.105 
*END

*D_NET *127 0.13146
*CONN
*P la_data_in[20] I
*I *419:la_data_in[20] I *D user_proj_example
*CAP
1 la_data_in[20] 0.00376321
2 *419:la_data_in[20] 0.00309417
3 *127:17 0.0156325
4 *127:15 0.0163016
5 *127:15 *206:6 0.000976203
6 *127:15 *266:15 0.000213731
7 *127:17 *128:17 0
8 *127:17 *182:14 0.0634141
9 *127:17 *188:15 0
10 *127:17 *203:14 0.0280646
*RES
1 la_data_in[20] *127:15 40.1689 
2 *127:15 *127:17 86.0455 
3 *127:17 *419:la_data_in[20] 34.3189 
*END

*D_NET *128 0.120855
*CONN
*P la_data_in[21] I
*I *419:la_data_in[21] I *D user_proj_example
*CAP
1 la_data_in[21] 0.00322271
2 *419:la_data_in[21] 0.00283798
3 *128:17 0.0162548
4 *128:15 0.0166395
5 *419:la_data_in[21] *265:21 0.000254622
6 *128:15 la_data_out[22] 0
7 *128:15 *419:la_oenb[36] 0.000326428
8 *128:15 *206:6 0.000320262
9 *128:15 *208:16 0.000311595
10 *128:17 *182:14 0
11 *128:17 *203:14 0
12 *128:17 *204:15 0.0267164
13 *128:17 *212:16 0.0187133
14 *128:17 *240:14 0.0352574
15 *124:17 *128:17 0
16 *127:17 *128:17 0
*RES
1 la_data_in[21] *128:15 35.9454 
2 *128:15 *128:17 84.9 
3 *128:17 *419:la_data_in[21] 32.2554 
*END

*D_NET *129 0.151036
*CONN
*P la_data_in[22] I
*I *419:la_data_in[22] I *D user_proj_example
*CAP
1 la_data_in[22] 0.000518028
2 *419:la_data_in[22] 0.000243451
3 *129:9 0.00327786
4 *129:7 0.00355243
5 *129:7 *209:7 0.000211041
6 *129:9 la_data_out[1] 1.44338e-05
7 *129:9 *137:9 0.000450302
8 *129:9 *140:9 0.00199597
9 *129:9 *187:9 0.0621338
10 *129:9 *191:12 0.00648255
11 *129:9 *195:9 0.0672771
12 *129:9 *207:9 0.00487897
*RES
1 la_data_in[22] *129:7 7.785 
2 *129:7 *129:9 198.99 
3 *129:9 *419:la_data_in[22] 5.625 
*END

*D_NET *130 0.155525
*CONN
*P la_data_in[23] I
*I *419:la_data_in[23] I *D user_proj_example
*CAP
1 la_data_in[23] 0.00143247
2 *419:la_data_in[23] 0.000446075
3 *130:19 0.00185709
4 *130:17 0.00284348
5 *130:17 *419:la_data_in[38] 1.29466e-05
6 *130:19 *135:17 0.00552287
7 *130:19 *138:23 0.0418121
8 *130:19 *159:15 0.000785118
9 *130:19 *175:15 0.000577595
10 *130:19 *197:12 0.0607871
11 *130:19 *255:15 0.00428581
12 *130:19 *260:23 0.00160731
13 *116:15 *130:19 0.0302018
14 *118:15 *130:19 0.0028171
15 *120:23 *130:19 0.000536151
*RES
1 la_data_in[23] *130:17 21.555 
2 *130:17 *130:19 195.57 
3 *130:19 *419:la_data_in[23] 15.75 
*END

*D_NET *131 0.0889469
*CONN
*P la_data_in[24] I
*I *419:la_data_in[24] I *D user_proj_example
*CAP
1 la_data_in[24] 0.000850455
2 *419:la_data_in[24] 0
3 *131:9 0.00689833
4 *131:7 0.00774879
5 *131:7 *419:la_oenb[38] 5.57813e-05
6 *131:9 la_data_out[12] 0.00233491
7 *131:9 la_data_out[3] 0.000247379
8 *131:9 la_data_out[7] 0.000662378
9 *131:9 la_data_out[9] 0.000317467
10 *131:9 *419:la_oenb[30] 0.000526588
11 *131:9 *419:la_oenb[32] 0.000546191
12 *131:9 *144:15 0.0015746
13 *131:9 *170:23 0.000248965
14 *131:9 *177:15 0.000328323
15 *131:9 *178:13 0.00200629
16 *131:9 *178:15 0.00526927
17 *131:9 *180:13 0.000242441
18 *131:9 *196:15 0.000545331
19 *131:9 *199:12 0.00375812
20 *131:9 *199:14 0.0141232
21 *131:9 *203:12 3.53802e-05
22 *131:9 *206:6 0.0228405
23 *131:9 *245:11 0.000305619
24 *131:9 *246:11 0.000275896
25 *131:9 *258:15 0.00577578
26 *131:9 *266:15 8.95539e-05
27 *131:9 *287:11 0.00277772
28 *131:9 *287:13 0.00123698
29 *131:9 *303:11 0.00143393
30 *131:9 *305:11 0.000999892
31 *122:19 *131:9 0.00352584
32 *122:21 *131:9 0
33 *124:15 *131:9 0.00136502
*RES
1 la_data_in[24] *131:7 9.405 
2 *131:7 *131:9 191.25 
3 *131:9 *419:la_data_in[24] 4.5 
*END

*D_NET *132 0.057543
*CONN
*P la_data_in[25] I
*I *419:la_data_in[25] I *D user_proj_example
*CAP
1 la_data_in[25] 0.00224568
2 *419:la_data_in[25] 0.00128852
3 *132:17 0.0213699
4 *132:15 0.0223271
5 *419:la_data_in[25] *170:23 0
6 *132:15 *206:6 0.00118329
7 *132:15 *208:20 0.00117462
8 *132:15 *211:10 0
9 *132:17 *145:23 0
10 *132:17 *184:12 0
11 *132:17 *239:17 0.00795397
*RES
1 la_data_in[25] *132:15 30.0054 
2 *132:15 *132:17 78.3327 
3 *132:17 *419:la_data_in[25] 21.5904 
*END

*D_NET *133 0.11525
*CONN
*P la_data_in[26] I
*I *419:la_data_in[26] I *D user_proj_example
*CAP
1 la_data_in[26] 0.000505286
2 *419:la_data_in[26] 0.000248063
3 *133:9 0.00817544
4 *133:7 0.00843266
5 *419:la_data_in[26] *175:13 0.000171848
6 *133:9 *142:9 0.00792648
7 *133:9 *149:9 0.000286457
8 *133:9 *191:12 0.00673463
9 *133:9 *195:9 0.0669693
10 *133:9 *207:9 0.00119584
11 *133:9 *209:9 0.0146038
*RES
1 la_data_in[26] *133:7 7.425 
2 *133:7 *133:9 183.69 
3 *133:9 *419:la_data_in[26] 5.985 
*END

*D_NET *134 0.151142
*CONN
*P la_data_in[27] I
*I *419:la_data_in[27] I *D user_proj_example
*CAP
1 la_data_in[27] 0.000825608
2 *419:la_data_in[27] 0.000178504
3 *134:15 0.000693361
4 *134:13 0.00134047
5 *134:15 *144:15 0.0311546
6 *134:15 *177:15 0.00218198
7 *134:15 *178:13 0.000536965
8 *134:15 *178:15 0.000145683
9 *134:15 *180:13 0.000115797
10 *134:15 *181:12 0.000725538
11 *134:15 *198:12 0.0864192
12 *134:15 *199:12 0.000952098
13 *134:15 *199:14 0.00137399
14 *134:15 *258:15 0.0244981
*RES
1 la_data_in[27] *134:13 18.0675 
2 *134:13 *134:15 75.8891 
3 *134:15 *419:la_data_in[27] 14.7825 
*END

*D_NET *135 0.145933
*CONN
*P la_data_in[28] I
*I *419:la_data_in[28] I *D user_proj_example
*CAP
1 la_data_in[28] 0.00132251
2 *419:la_data_in[28] 0.000473684
3 *135:17 0.0161407
4 *135:15 0.0169895
5 *135:15 *419:la_oenb[41] 6.39898e-05
6 *135:15 *144:15 0.000134314
7 *135:15 *199:14 0.000380805
8 *135:15 *206:6 0.00118618
9 *135:15 *214:10 0.000316345
10 *135:17 la_data_out[26] 0.000124208
11 *135:17 *136:25 0.0786408
12 *135:17 *138:23 0.00601822
13 *135:17 *139:17 0.000291426
14 *135:17 *193:12 0.00223291
15 *135:17 *197:12 0.00468496
16 *135:17 *211:12 0.00128148
17 *135:17 *255:15 0.00275166
18 *135:17 *260:21 0.000655317
19 *135:17 *260:23 0.00334027
20 *116:15 *135:17 0.000511065
21 *120:23 *135:17 0.00286973
22 *130:19 *135:17 0.00552287
*RES
1 la_data_in[28] *135:15 24.2196 
2 *135:15 *135:17 73.5218 
3 *135:17 *419:la_data_in[28] 15.8046 
*END

*D_NET *136 0.167207
*CONN
*P la_data_in[29] I
*I *419:la_data_in[29] I *D user_proj_example
*CAP
1 la_data_in[29] 0.00189307
2 *419:la_data_in[29] 0.000528812
3 *136:25 0.00279381
4 *136:23 0.00415806
5 *136:23 *419:la_data_in[42] 4.4633e-05
6 *136:23 *144:15 0.000136438
7 *136:23 *200:8 0.000303731
8 *136:23 *206:6 0.00143575
9 *136:23 *215:7 0
10 *136:25 *139:17 0.00100169
11 *136:25 *141:21 0.0568546
12 *136:25 *194:12 0
13 *136:25 *214:12 0.000181257
14 *118:15 *136:25 0.000703897
15 *120:23 *136:25 0.0164197
16 *121:23 *136:25 0.00144203
17 *125:15 *136:25 0.000669244
18 *135:17 *136:25 0.0786408
*RES
1 la_data_in[29] *136:23 27.0289 
2 *136:23 *136:25 71.1545 
3 *136:25 *419:la_data_in[29] 16.0939 
*END

*D_NET *137 0.138797
*CONN
*P la_data_in[2] I
*I *419:la_data_in[2] I *D user_proj_example
*CAP
1 la_data_in[2] 0.000418798
2 *419:la_data_in[2] 0.000399011
3 *137:17 0.00103316
4 *137:15 0.000795272
5 *137:9 0.0178332
6 *137:7 0.0180909
7 *137:9 la_data_out[1] 0.000269891
8 *137:9 *179:17 0.0030706
9 *137:9 *179:25 0.0233709
10 *137:9 *187:9 0
11 *137:9 *234:9 0
12 *137:9 *239:9 0.0040751
13 *137:9 *243:29 0.000751901
14 *137:9 *252:9 0
15 *137:9 *253:9 0
16 *137:9 *256:9 0
17 *137:9 *257:9 0
18 *137:17 *179:17 0.00290825
19 *137:17 *201:9 0.0350348
20 *137:17 *223:9 0.0247004
21 *137:17 *243:29 0.00559486
22 *419:la_data_in[11] *137:9 0
23 *119:9 *137:9 0
24 *123:9 *137:9 0
25 *129:9 *137:9 0.000450302
*RES
1 la_data_in[2] *137:7 6.705 
2 *137:7 *137:9 182.79 
3 *137:9 *137:15 9.81 
4 *137:15 *137:17 91.71 
5 *137:17 *419:la_data_in[2] 7.425 
*END

*D_NET *138 0.140567
*CONN
*P la_data_in[30] I
*I *419:la_data_in[30] I *D user_proj_example
*CAP
1 la_data_in[30] 0.00163904
2 *419:la_data_in[30] 0.000367628
3 *138:23 0.00123976
4 *138:21 0.00251118
5 *419:la_data_in[30] la_data_out[12] 0.000310855
6 *419:la_data_in[30] *245:13 0
7 *138:23 *139:17 0.061812
8 *138:23 *141:21 0.000318784
9 *138:23 *197:12 0.00293684
10 *138:23 *211:12 0.0186261
11 *118:15 *138:23 0.00131942
12 *121:23 *138:23 0.00165477
13 *130:19 *138:23 0.0418121
14 *135:17 *138:23 0.00601822
*RES
1 la_data_in[30] *138:21 23.175 
2 *138:21 *138:23 167.49 
3 *138:23 *419:la_data_in[30] 15.93 
*END

*D_NET *139 0.114182
*CONN
*P la_data_in[31] I
*I *419:la_data_in[31] I *D user_proj_example
*CAP
1 la_data_in[31] 0.00142825
2 *419:la_data_in[31] 0.000554423
3 *139:17 0.00438149
4 *139:15 0.00525532
5 *139:15 la_data_out[31] 0
6 *139:15 *419:la_oenb[43] 0.000175421
7 *139:17 *141:21 0.00423404
8 *139:17 *147:27 0.00571742
9 *139:17 *211:12 0.00100428
10 *139:17 *214:12 0.0125387
11 *139:17 *216:12 0.00220557
12 *121:23 *139:17 0.00654383
13 *125:15 *139:17 0.00703822
14 *135:17 *139:17 0.000291426
15 *136:25 *139:17 0.00100169
16 *138:23 *139:17 0.061812
*RES
1 la_data_in[31] *139:15 21.825 
2 *139:15 *139:17 165.33 
3 *139:17 *419:la_data_in[31] 16.11 
*END