*SPEF "ieee 1481-1999"
*DESIGN "user_project_wrapper"
*DATE "11:11:11 Fri 11 11, 1111"
*VENDOR "OpenRCX"
*PROGRAM "Parallel Extraction"
*VERSION "1.0"
*DESIGN_FLOW "NAME_SCOPE LOCAL" "PIN_CAP NONE"
*DIVIDER /
*DELIMITER :
*BUS_DELIMITER []
*T_UNIT 1 NS
*C_UNIT 1 PF
*R_UNIT 1 OHM
*L_UNIT 1 HENRY

*NAME_MAP
*1 io_in[0]
*2 io_in[10]
*3 io_in[11]
*4 io_in[12]
*5 io_in[13]
*6 io_in[14]
*7 io_in[15]
*8 io_in[16]
*9 io_in[17]
*10 io_in[18]
*11 io_in[19]
*12 io_in[1]
*13 io_in[20]
*14 io_in[21]
*15 io_in[22]
*16 io_in[23]
*17 io_in[24]
*18 io_in[25]
*19 io_in[26]
*20 io_in[27]
*21 io_in[28]
*22 io_in[29]
*23 io_in[2]
*24 io_in[30]
*25 io_in[31]
*26 io_in[32]
*27 io_in[33]
*28 io_in[34]
*29 io_in[35]
*30 io_in[36]
*31 io_in[37]
*32 io_in[3]
*33 io_in[4]
*34 io_in[5]
*35 io_in[6]
*36 io_in[7]
*37 io_in[8]
*38 io_in[9]
*39 io_oeb[0]
*40 io_oeb[10]
*41 io_oeb[11]
*42 io_oeb[12]
*43 io_oeb[13]
*44 io_oeb[14]
*45 io_oeb[15]
*46 io_oeb[16]
*47 io_oeb[17]
*48 io_oeb[18]
*49 io_oeb[19]
*50 io_oeb[1]
*51 io_oeb[20]
*52 io_oeb[21]
*53 io_oeb[22]
*54 io_oeb[23]
*55 io_oeb[24]
*56 io_oeb[25]
*57 io_oeb[26]
*58 io_oeb[27]
*59 io_oeb[28]
*60 io_oeb[29]
*61 io_oeb[2]
*62 io_oeb[30]
*63 io_oeb[31]
*64 io_oeb[32]
*65 io_oeb[33]
*66 io_oeb[34]
*67 io_oeb[35]
*68 io_oeb[36]
*69 io_oeb[37]
*70 io_oeb[3]
*71 io_oeb[4]
*72 io_oeb[5]
*73 io_oeb[6]
*74 io_oeb[7]
*75 io_oeb[8]
*76 io_oeb[9]
*77 io_out[0]
*78 io_out[10]
*79 io_out[11]
*80 io_out[12]
*81 io_out[13]
*82 io_out[14]
*83 io_out[15]
*84 io_out[16]
*85 io_out[17]
*86 io_out[18]
*87 io_out[19]
*88 io_out[1]
*89 io_out[20]
*90 io_out[21]
*91 io_out[22]
*92 io_out[23]
*93 io_out[24]
*94 io_out[25]
*95 io_out[26]
*96 io_out[27]
*97 io_out[28]
*98 io_out[29]
*99 io_out[2]
*100 io_out[30]
*101 io_out[31]
*102 io_out[32]
*103 io_out[33]
*104 io_out[34]
*105 io_out[35]
*106 io_out[36]
*107 io_out[37]
*108 io_out[3]
*109 io_out[4]
*110 io_out[5]
*111 io_out[6]
*112 io_out[7]
*113 io_out[8]
*114 io_out[9]
*115 la_data_in[0]
*116 la_data_in[10]
*117 la_data_in[11]
*118 la_data_in[12]
*119 la_data_in[13]
*120 la_data_in[14]
*121 la_data_in[15]
*122 la_data_in[16]
*123 la_data_in[17]
*124 la_data_in[18]
*125 la_data_in[19]
*126 la_data_in[1]
*127 la_data_in[20]
*128 la_data_in[21]
*129 la_data_in[22]
*130 la_data_in[23]
*131 la_data_in[24]
*132 la_data_in[25]
*133 la_data_in[26]
*134 la_data_in[27]
*135 la_data_in[28]
*136 la_data_in[29]
*137 la_data_in[2]
*138 la_data_in[30]
*139 la_data_in[31]
*140 la_data_in[32]
*141 la_data_in[33]
*142 la_data_in[34]
*143 la_data_in[35]
*144 la_data_in[36]
*145 la_data_in[37]
*146 la_data_in[38]
*147 la_data_in[39]
*148 la_data_in[3]
*149 la_data_in[40]
*150 la_data_in[41]
*151 la_data_in[42]
*152 la_data_in[43]
*153 la_data_in[44]
*154 la_data_in[45]
*155 la_data_in[46]
*156 la_data_in[47]
*157 la_data_in[48]
*158 la_data_in[49]
*159 la_data_in[4]
*160 la_data_in[50]
*161 la_data_in[51]
*162 la_data_in[52]
*163 la_data_in[53]
*164 la_data_in[54]
*165 la_data_in[55]
*166 la_data_in[56]
*167 la_data_in[57]
*168 la_data_in[58]
*169 la_data_in[59]
*170 la_data_in[5]
*171 la_data_in[60]
*172 la_data_in[61]
*173 la_data_in[62]
*174 la_data_in[63]
*175 la_data_in[6]
*176 la_data_in[7]
*177 la_data_in[8]
*178 la_data_in[9]
*179 la_data_out[0]
*180 la_data_out[10]
*181 la_data_out[11]
*182 la_data_out[12]
*183 la_data_out[13]
*184 la_data_out[14]
*185 la_data_out[15]
*186 la_data_out[16]
*187 la_data_out[17]
*188 la_data_out[18]
*189 la_data_out[19]
*190 la_data_out[1]
*191 la_data_out[20]
*192 la_data_out[21]
*193 la_data_out[22]
*194 la_data_out[23]
*195 la_data_out[24]
*196 la_data_out[25]
*197 la_data_out[26]
*198 la_data_out[27]
*199 la_data_out[28]
*200 la_data_out[29]
*201 la_data_out[2]
*202 la_data_out[30]
*203 la_data_out[31]
*204 la_data_out[32]
*205 la_data_out[33]
*206 la_data_out[34]
*207 la_data_out[35]
*208 la_data_out[36]
*209 la_data_out[37]
*210 la_data_out[38]
*211 la_data_out[39]
*212 la_data_out[3]
*213 la_data_out[40]
*214 la_data_out[41]
*215 la_data_out[42]
*216 la_data_out[43]
*217 la_data_out[44]
*218 la_data_out[45]
*219 la_data_out[46]
*220 la_data_out[47]
*221 la_data_out[48]
*222 la_data_out[49]
*223 la_data_out[4]
*224 la_data_out[50]
*225 la_data_out[51]
*226 la_data_out[52]
*227 la_data_out[53]
*228 la_data_out[54]
*229 la_data_out[55]
*230 la_data_out[56]
*231 la_data_out[57]
*232 la_data_out[58]
*233 la_data_out[59]
*234 la_data_out[5]
*235 la_data_out[60]
*236 la_data_out[61]
*237 la_data_out[62]
*238 la_data_out[63]
*239 la_data_out[6]
*240 la_data_out[7]
*241 la_data_out[8]
*242 la_data_out[9]
*243 la_oenb[0]
*244 la_oenb[10]
*245 la_oenb[11]
*246 la_oenb[12]
*247 la_oenb[13]
*248 la_oenb[14]
*249 la_oenb[15]
*250 la_oenb[16]
*251 la_oenb[17]
*252 la_oenb[18]
*253 la_oenb[19]
*254 la_oenb[1]
*255 la_oenb[20]
*256 la_oenb[21]
*257 la_oenb[22]
*258 la_oenb[23]
*259 la_oenb[24]
*260 la_oenb[25]
*261 la_oenb[26]
*262 la_oenb[27]
*263 la_oenb[28]
*264 la_oenb[29]
*265 la_oenb[2]
*266 la_oenb[30]
*267 la_oenb[31]
*268 la_oenb[32]
*269 la_oenb[33]
*270 la_oenb[34]
*271 la_oenb[35]
*272 la_oenb[36]
*273 la_oenb[37]
*274 la_oenb[38]
*275 la_oenb[39]
*276 la_oenb[3]
*277 la_oenb[40]
*278 la_oenb[41]
*279 la_oenb[42]
*280 la_oenb[43]
*281 la_oenb[44]
*282 la_oenb[45]
*283 la_oenb[46]
*284 la_oenb[47]
*285 la_oenb[48]
*286 la_oenb[49]
*287 la_oenb[4]
*288 la_oenb[50]
*289 la_oenb[51]
*290 la_oenb[52]
*291 la_oenb[53]
*292 la_oenb[54]
*293 la_oenb[55]
*294 la_oenb[56]
*295 la_oenb[57]
*296 la_oenb[58]
*297 la_oenb[59]
*298 la_oenb[5]
*299 la_oenb[60]
*300 la_oenb[61]
*301 la_oenb[62]
*302 la_oenb[63]
*303 la_oenb[6]
*304 la_oenb[7]
*305 la_oenb[8]
*306 la_oenb[9]
*307 user_clock2
*308 user_irq[0]
*309 user_irq[1]
*310 user_irq[2]
*313 wb_clk_i
*314 wb_rst_i
*315 wbs_ack_o
*316 wbs_adr_i[0]
*317 wbs_adr_i[10]
*318 wbs_adr_i[11]
*319 wbs_adr_i[12]
*320 wbs_adr_i[13]
*321 wbs_adr_i[14]
*322 wbs_adr_i[15]
*323 wbs_adr_i[16]
*324 wbs_adr_i[17]
*325 wbs_adr_i[18]
*326 wbs_adr_i[19]
*327 wbs_adr_i[1]
*328 wbs_adr_i[20]
*329 wbs_adr_i[21]
*330 wbs_adr_i[22]
*331 wbs_adr_i[23]
*332 wbs_adr_i[24]
*333 wbs_adr_i[25]
*334 wbs_adr_i[26]
*335 wbs_adr_i[27]
*336 wbs_adr_i[28]
*337 wbs_adr_i[29]
*338 wbs_adr_i[2]
*339 wbs_adr_i[30]
*340 wbs_adr_i[31]
*341 wbs_adr_i[3]
*342 wbs_adr_i[4]
*343 wbs_adr_i[5]
*344 wbs_adr_i[6]
*345 wbs_adr_i[7]
*346 wbs_adr_i[8]
*347 wbs_adr_i[9]
*348 wbs_cyc_i
*349 wbs_dat_i[0]
*350 wbs_dat_i[10]
*351 wbs_dat_i[11]
*352 wbs_dat_i[12]
*353 wbs_dat_i[13]
*354 wbs_dat_i[14]
*355 wbs_dat_i[15]
*356 wbs_dat_i[16]
*357 wbs_dat_i[17]
*358 wbs_dat_i[18]
*359 wbs_dat_i[19]
*360 wbs_dat_i[1]
*361 wbs_dat_i[20]
*362 wbs_dat_i[21]
*363 wbs_dat_i[22]
*364 wbs_dat_i[23]
*365 wbs_dat_i[24]
*366 wbs_dat_i[25]
*367 wbs_dat_i[26]
*368 wbs_dat_i[27]
*369 wbs_dat_i[28]
*370 wbs_dat_i[29]
*371 wbs_dat_i[2]
*372 wbs_dat_i[30]
*373 wbs_dat_i[31]
*374 wbs_dat_i[3]
*375 wbs_dat_i[4]
*376 wbs_dat_i[5]
*377 wbs_dat_i[6]
*378 wbs_dat_i[7]
*379 wbs_dat_i[8]
*380 wbs_dat_i[9]
*381 wbs_dat_o[0]
*382 wbs_dat_o[10]
*383 wbs_dat_o[11]
*384 wbs_dat_o[12]
*385 wbs_dat_o[13]
*386 wbs_dat_o[14]
*387 wbs_dat_o[15]
*388 wbs_dat_o[16]
*389 wbs_dat_o[17]
*390 wbs_dat_o[18]
*391 wbs_dat_o[19]
*392 wbs_dat_o[1]
*393 wbs_dat_o[20]
*394 wbs_dat_o[21]
*395 wbs_dat_o[22]
*396 wbs_dat_o[23]
*397 wbs_dat_o[24]
*398 wbs_dat_o[25]
*399 wbs_dat_o[26]
*400 wbs_dat_o[27]
*401 wbs_dat_o[28]
*402 wbs_dat_o[29]
*403 wbs_dat_o[2]
*404 wbs_dat_o[30]
*405 wbs_dat_o[31]
*406 wbs_dat_o[3]
*407 wbs_dat_o[4]
*408 wbs_dat_o[5]
*409 wbs_dat_o[6]
*410 wbs_dat_o[7]
*411 wbs_dat_o[8]
*412 wbs_dat_o[9]
*413 wbs_sel_i[0]
*414 wbs_sel_i[1]
*415 wbs_sel_i[2]
*416 wbs_sel_i[3]
*417 wbs_stb_i
*418 wbs_we_i
*419 mprj

*PORTS
io_in[0] I
io_in[10] I
io_in[11] I
io_in[12] I
io_in[13] I
io_in[14] I
io_in[15] I
io_in[16] I
io_in[17] I
io_in[18] I
io_in[19] I
io_in[1] I
io_in[20] I
io_in[21] I
io_in[22] I
io_in[23] I
io_in[24] I
io_in[25] I
io_in[26] I
io_in[27] I
io_in[28] I
io_in[29] I
io_in[2] I
io_in[30] I
io_in[31] I
io_in[32] I
io_in[33] I
io_in[34] I
io_in[35] I
io_in[36] I
io_in[37] I
io_in[3] I
io_in[4] I
io_in[5] I
io_in[6] I
io_in[7] I
io_in[8] I
io_in[9] I
io_oeb[0] O
io_oeb[10] O
io_oeb[11] O
io_oeb[12] O
io_oeb[13] O
io_oeb[14] O
io_oeb[15] O
io_oeb[16] O
io_oeb[17] O
io_oeb[18] O
io_oeb[19] O
io_oeb[1] O
io_oeb[20] O
io_oeb[21] O
io_oeb[22] O
io_oeb[23] O
io_oeb[24] O
io_oeb[25] O
io_oeb[26] O
io_oeb[27] O
io_oeb[28] O
io_oeb[29] O
io_oeb[2] O
io_oeb[30] O
io_oeb[31] O
io_oeb[32] O
io_oeb[33] O
io_oeb[34] O
io_oeb[35] O
io_oeb[36] O
io_oeb[37] O
io_oeb[3] O
io_oeb[4] O
io_oeb[5] O
io_oeb[6] O
io_oeb[7] O
io_oeb[8] O
io_oeb[9] O
io_out[0] O
io_out[10] O
io_out[11] O
io_out[12] O
io_out[13] O
io_out[14] O
io_out[15] O
io_out[16] O
io_out[17] O
io_out[18] O
io_out[19] O
io_out[1] O
io_out[20] O
io_out[21] O
io_out[22] O
io_out[23] O
io_out[24] O
io_out[25] O
io_out[26] O
io_out[27] O
io_out[28] O
io_out[29] O
io_out[2] O
io_out[30] O
io_out[31] O
io_out[32] O
io_out[33] O
io_out[34] O
io_out[35] O
io_out[36] O
io_out[37] O
io_out[3] O
io_out[4] O
io_out[5] O
io_out[6] O
io_out[7] O
io_out[8] O
io_out[9] O
la_data_in[0] I
la_data_in[10] I
la_data_in[11] I
la_data_in[12] I
la_data_in[13] I
la_data_in[14] I
la_data_in[15] I
la_data_in[16] I
la_data_in[17] I
la_data_in[18] I
la_data_in[19] I
la_data_in[1] I
la_data_in[20] I
la_data_in[21] I
la_data_in[22] I
la_data_in[23] I
la_data_in[24] I
la_data_in[25] I
la_data_in[26] I
la_data_in[27] I
la_data_in[28] I
la_data_in[29] I
la_data_in[2] I
la_data_in[30] I
la_data_in[31] I
la_data_in[32] I
la_data_in[33] I
la_data_in[34] I
la_data_in[35] I
la_data_in[36] I
la_data_in[37] I
la_data_in[38] I
la_data_in[39] I
la_data_in[3] I
la_data_in[40] I
la_data_in[41] I
la_data_in[42] I
la_data_in[43] I
la_data_in[44] I
la_data_in[45] I
la_data_in[46] I
la_data_in[47] I
la_data_in[48] I
la_data_in[49] I
la_data_in[4] I
la_data_in[50] I
la_data_in[51] I
la_data_in[52] I
la_data_in[53] I
la_data_in[54] I
la_data_in[55] I
la_data_in[56] I
la_data_in[57] I
la_data_in[58] I
la_data_in[59] I
la_data_in[5] I
la_data_in[60] I
la_data_in[61] I
la_data_in[62] I
la_data_in[63] I
la_data_in[6] I
la_data_in[7] I
la_data_in[8] I
la_data_in[9] I
la_data_out[0] O
la_data_out[10] O
la_data_out[11] O
la_data_out[12] O
la_data_out[13] O
la_data_out[14] O
la_data_out[15] O
la_data_out[16] O
la_data_out[17] O
la_data_out[18] O
la_data_out[19] O
la_data_out[1] O
la_data_out[20] O
la_data_out[21] O
la_data_out[22] O
la_data_out[23] O
la_data_out[24] O
la_data_out[25] O
la_data_out[26] O
la_data_out[27] O
la_data_out[28] O
la_data_out[29] O
la_data_out[2] O
la_data_out[30] O
la_data_out[31] O
la_data_out[32] O
la_data_out[33] O
la_data_out[34] O
la_data_out[35] O
la_data_out[36] O
la_data_out[37] O
la_data_out[38] O
la_data_out[39] O
la_data_out[3] O
la_data_out[40] O
la_data_out[41] O
la_data_out[42] O
la_data_out[43] O
la_data_out[44] O
la_data_out[45] O
la_data_out[46] O
la_data_out[47] O
la_data_out[48] O
la_data_out[49] O
la_data_out[4] O
la_data_out[50] O
la_data_out[51] O
la_data_out[52] O
la_data_out[53] O
la_data_out[54] O
la_data_out[55] O
la_data_out[56] O
la_data_out[57] O
la_data_out[58] O
la_data_out[59] O
la_data_out[5] O
la_data_out[60] O
la_data_out[61] O
la_data_out[62] O
la_data_out[63] O
la_data_out[6] O
la_data_out[7] O
la_data_out[8] O
la_data_out[9] O
la_oenb[0] I
la_oenb[10] I
la_oenb[11] I
la_oenb[12] I
la_oenb[13] I
la_oenb[14] I
la_oenb[15] I
la_oenb[16] I
la_oenb[17] I
la_oenb[18] I
la_oenb[19] I
la_oenb[1] I
la_oenb[20] I
la_oenb[21] I
la_oenb[22] I
la_oenb[23] I
la_oenb[24] I
la_oenb[25] I
la_oenb[26] I
la_oenb[27] I
la_oenb[28] I
la_oenb[29] I
la_oenb[2] I
la_oenb[30] I
la_oenb[31] I
la_oenb[32] I
la_oenb[33] I
la_oenb[34] I
la_oenb[35] I
la_oenb[36] I
la_oenb[37] I
la_oenb[38] I
la_oenb[39] I
la_oenb[3] I
la_oenb[40] I
la_oenb[41] I
la_oenb[42] I
la_oenb[43] I
la_oenb[44] I
la_oenb[45] I
la_oenb[46] I
la_oenb[47] I
la_oenb[48] I
la_oenb[49] I
la_oenb[4] I
la_oenb[50] I
la_oenb[51] I
la_oenb[52] I
la_oenb[53] I
la_oenb[54] I
la_oenb[55] I
la_oenb[56] I
la_oenb[57] I
la_oenb[58] I
la_oenb[59] I
la_oenb[5] I
la_oenb[60] I
la_oenb[61] I
la_oenb[62] I
la_oenb[63] I
la_oenb[6] I
la_oenb[7] I
la_oenb[8] I
la_oenb[9] I
user_clock2 I
user_irq[0] O
user_irq[1] O
user_irq[2] O
wb_clk_i I
wb_rst_i I
wbs_ack_o O
wbs_adr_i[0] I
wbs_adr_i[10] I
wbs_adr_i[11] I
wbs_adr_i[12] I
wbs_adr_i[13] I
wbs_adr_i[14] I
wbs_adr_i[15] I
wbs_adr_i[16] I
wbs_adr_i[17] I
wbs_adr_i[18] I
wbs_adr_i[19] I
wbs_adr_i[1] I
wbs_adr_i[20] I
wbs_adr_i[21] I
wbs_adr_i[22] I
wbs_adr_i[23] I
wbs_adr_i[24] I
wbs_adr_i[25] I
wbs_adr_i[26] I
wbs_adr_i[27] I
wbs_adr_i[28] I
wbs_adr_i[29] I
wbs_adr_i[2] I
wbs_adr_i[30] I
wbs_adr_i[31] I
wbs_adr_i[3] I
wbs_adr_i[4] I
wbs_adr_i[5] I
wbs_adr_i[6] I
wbs_adr_i[7] I
wbs_adr_i[8] I
wbs_adr_i[9] I
wbs_cyc_i I
wbs_dat_i[0] I
wbs_dat_i[10] I
wbs_dat_i[11] I
wbs_dat_i[12] I
wbs_dat_i[13] I
wbs_dat_i[14] I
wbs_dat_i[15] I
wbs_dat_i[16] I
wbs_dat_i[17] I
wbs_dat_i[18] I
wbs_dat_i[19] I
wbs_dat_i[1] I
wbs_dat_i[20] I
wbs_dat_i[21] I
wbs_dat_i[22] I
wbs_dat_i[23] I
wbs_dat_i[24] I
wbs_dat_i[25] I
wbs_dat_i[26] I
wbs_dat_i[27] I
wbs_dat_i[28] I
wbs_dat_i[29] I
wbs_dat_i[2] I
wbs_dat_i[30] I
wbs_dat_i[31] I
wbs_dat_i[3] I
wbs_dat_i[4] I
wbs_dat_i[5] I
wbs_dat_i[6] I
wbs_dat_i[7] I
wbs_dat_i[8] I
wbs_dat_i[9] I
wbs_dat_o[0] O
wbs_dat_o[10] O
wbs_dat_o[11] O
wbs_dat_o[12] O
wbs_dat_o[13] O
wbs_dat_o[14] O
wbs_dat_o[15] O
wbs_dat_o[16] O
wbs_dat_o[17] O
wbs_dat_o[18] O
wbs_dat_o[19] O
wbs_dat_o[1] O
wbs_dat_o[20] O
wbs_dat_o[21] O
wbs_dat_o[22] O
wbs_dat_o[23] O
wbs_dat_o[24] O
wbs_dat_o[25] O
wbs_dat_o[26] O
wbs_dat_o[27] O
wbs_dat_o[28] O
wbs_dat_o[29] O
wbs_dat_o[2] O
wbs_dat_o[30] O
wbs_dat_o[31] O
wbs_dat_o[3] O
wbs_dat_o[4] O
wbs_dat_o[5] O
wbs_dat_o[6] O
wbs_dat_o[7] O
wbs_dat_o[8] O
wbs_dat_o[9] O
wbs_sel_i[0] I
wbs_sel_i[1] I
wbs_sel_i[2] I
wbs_sel_i[3] I
wbs_stb_i I
wbs_we_i I

*D_NET *115 0.163435
*CONN
*P la_data_in[0] I
*I *419:la_data_in[0] I *D user_proj_example
*CAP
1 la_data_in[0] 0.00180753
2 *419:la_data_in[0] 0.000481973
3 *115:23 0.00760364
4 *115:21 0.00877243
5 *115:15 0.0132566
6 *115:13 0.0134134
7 *115:13 *419:la_oenb[21] 7.69519e-05
8 *115:15 *116:15 0.000582002
9 *115:15 *120:23 0.0565251
10 *115:15 *148:15 0
11 *115:15 *175:15 0.0198804
12 *115:15 *184:12 0
13 *115:23 *179:15 8.92798e-05
14 *115:23 *243:29 0.040946
15 *115:23 *298:13 0
*RES
1 la_data_in[0] *115:13 23.458 
2 *115:13 *115:15 91.3882 
3 *115:15 *115:21 17.866 
4 *115:21 *115:23 112.632 
5 *115:23 *419:la_data_in[0] 8.504 
*END

*D_NET *116 0.2306
*CONN
*P la_data_in[10] I
*I *419:la_data_in[10] I *D user_proj_example
*CAP
1 la_data_in[10] 0.00159805
2 *419:la_data_in[10] 0.000475886
3 *116:15 0.0036265
4 *116:13 0.00474866
5 *116:13 *419:la_oenb[28] 7.60363e-05
6 *116:15 *118:15 0.100117
7 *116:15 *120:23 0.000852619
8 *116:15 *126:15 0.0741107
9 *116:15 *130:19 0.0346134
10 *116:15 *135:17 0.00055966
11 *116:15 *159:15 0.00789319
12 *116:15 *175:15 0.000739843
13 *116:15 *255:15 0.000606469
14 *115:15 *116:15 0.000582002
*RES
1 la_data_in[10] *116:13 22.6 
2 *116:13 *116:15 282.152 
3 *116:15 *419:la_data_in[10] 16.308 
*END

*D_NET *117 0.228528
*CONN
*P la_data_in[11] I
*I *419:la_data_in[11] I *D user_proj_example
*CAP
1 la_data_in[11] 0.000789218
2 *419:la_data_in[11] 0.00171569
3 *117:9 0.00294763
4 *117:7 0.00202116
5 *419:la_data_in[11] *137:9 0
6 *419:la_data_in[11] *176:15 0.000100816
7 *419:la_data_in[11] *181:12 0.000517479
8 *419:la_data_in[11] *234:9 0.00819168
9 *117:7 *419:la_oenb[29] 0
10 *117:9 *119:9 0.0982507
11 *117:9 *180:13 0.099061
12 *117:9 *181:12 0.0116199
13 *117:9 *199:12 0.000442828
14 *117:9 *200:8 0.00128578
15 *117:9 *234:9 0.00158367
*RES
1 la_data_in[11] *117:7 9.128 
2 *117:7 *117:9 256.984 
3 *117:9 *419:la_data_in[11] 36.224 
*END

*D_NET *118 0.217485
*CONN
*P la_data_in[12] I
*I *419:la_data_in[12] I *D user_proj_example
*CAP
1 la_data_in[12] 0.00173583
2 *419:la_data_in[12] 0.000527737
3 *118:15 0.00407111
4 *118:13 0.00527921
5 *118:13 *202:7 5.68325e-06
6 *118:15 *120:23 0.00182732
7 *118:15 *121:23 0.0906481
8 *118:15 *130:19 0.00299665
9 *118:15 *136:25 0.000769056
10 *118:15 *138:23 0.0015122
11 *118:15 *159:15 0.00109349
12 *118:15 *175:15 0.00690185
13 *116:15 *118:15 0.100117
*RES
1 la_data_in[12] *118:13 22.808 
2 *118:13 *118:15 273.416 
3 *118:15 *419:la_data_in[12] 16.516 
*END

*D_NET *119 0.213324
*CONN
*P la_data_in[13] I
*I *419:la_data_in[13] I *D user_proj_example
*CAP
1 la_data_in[13] 0.000744581
2 *419:la_data_in[13] 0.000145068
3 *119:9 0.00388563
4 *119:7 0.00448514
5 *119:9 *123:9 0.0827062
6 *119:9 *137:9 0
7 *119:9 *181:12 0.00494722
8 *119:9 *191:12 0.00551854
9 *119:9 *200:8 0.00193643
10 *119:9 *202:9 0.00366815
11 *119:9 *234:9 0.00703599
12 *117:9 *119:9 0.0982507
*RES
1 la_data_in[13] *119:7 8.92 
2 *119:7 *119:9 269.048 
3 *119:9 *419:la_data_in[13] 5.176 
*END

*D_NET *120 0.208493
*CONN
*P la_data_in[14] I
*I *419:la_data_in[14] I *D user_proj_example
*CAP
1 la_data_in[14] 0.00192798
2 *419:la_data_in[14] 0.000623447
3 *120:23 0.0112015
4 *120:21 0.012506
5 *120:21 *419:la_oenb[31] 4.1536e-05
6 *120:21 *250:13 0.000104752
7 *120:23 *121:23 0.00430099
8 *120:23 *125:15 0.00780894
9 *120:23 *130:19 0.000687158
10 *120:23 *135:17 0.00308596
11 *120:23 *136:25 0.0187981
12 *120:23 *175:15 0.0876754
13 *120:23 *184:12 0
14 *120:23 *194:12 0
15 *120:23 *197:12 0.000526454
16 *115:15 *120:23 0.0565251
17 *116:15 *120:23 0.000852619
18 *118:15 *120:23 0.00182732
*RES
1 la_data_in[14] *120:21 25.2037 
2 *120:21 *120:23 112.859 
3 *120:23 *419:la_data_in[14] 16.8317 
*END

*D_NET *121 0.203113
*CONN
*P la_data_in[15] I
*I *419:la_data_in[15] I *D user_proj_example
*CAP
1 la_data_in[15] 0.0020226
2 *419:la_data_in[15] 0.000637267
3 *121:23 0.00525559
4 *121:21 0.00664092
5 *121:21 *204:13 0
6 *121:21 *248:13 0
7 *121:21 *250:13 0.000314257
8 *121:23 *125:15 0.0787659
9 *121:23 *136:25 0.00161227
10 *121:23 *138:23 0.00175257
11 *121:23 *139:17 0.00749945
12 *121:23 *175:15 0.0036632
13 *118:15 *121:23 0.0906481
14 *120:23 *121:23 0.00430099
*RES
1 la_data_in[15] *121:21 25.72 
2 *121:21 *121:23 258.44 
3 *121:23 *419:la_data_in[15] 16.724 
*END

*D_NET *122 0.1201
*CONN
*P la_data_in[16] I
*I *419:la_data_in[16] I *D user_proj_example
*CAP
1 la_data_in[16] 0.00161974
2 *419:la_data_in[16] 0.000214646
3 *122:21 0.0115431
4 *122:19 0.013185
5 *122:15 0.00347631
6 *122:15 *419:la_oenb[30] 0.000451637
7 *122:15 *419:la_oenb[32] 0.00138244
8 *122:15 *131:9 0.00275128
9 *122:15 *258:15 0.000192271
10 *122:19 la_data_out[12] 0.000186007
11 *122:19 *419:la_oenb[30] 0.00439156
12 *122:19 *131:9 0.00107688
13 *122:19 *183:20 0.00109031
14 *122:19 *193:12 4.56404e-06
15 *122:19 *203:12 4.44448e-05
16 *122:19 *246:11 6.33801e-05
17 *122:21 la_data_out[12] 0.000104698
18 *122:21 la_data_out[9] 0.000121337
19 *122:21 *131:9 0
20 *122:21 *183:12 0.0161322
21 *122:21 *183:20 0.0105697
22 *122:21 *243:15 0.0350833
23 *122:21 *245:11 0.00011764
24 *122:21 *276:21 0.00652541
25 *122:21 *305:11 0.00977181
*RES
1 la_data_in[16] *122:15 25.04 
2 *122:15 *122:19 28.704 
3 *122:19 *122:21 214.448 
4 *122:21 *419:la_data_in[16] 14.436 
*END

*D_NET *123 0.20944
*CONN
*P la_data_in[17] I
*I *419:la_data_in[17] I *D user_proj_example
*CAP
1 la_data_in[17] 0.000699945
2 *419:la_data_in[17] 0.000189705
3 *123:9 0.00167968
4 *123:7 0.00218992
5 *123:7 *419:la_oenb[33] 0
6 *123:9 *137:9 0
7 *123:9 *140:9 0.0107486
8 *123:9 *181:12 0.00178419
9 *123:9 *187:9 0.0976477
10 *123:9 *191:12 0.00912785
11 *123:9 *202:9 0.00266632
12 *119:9 *123:9 0.0827062
*RES
1 la_data_in[17] *123:7 8.712 
2 *123:7 *123:9 251.576 
3 *123:9 *419:la_data_in[17] 5.384 
*END

*D_NET *124 0.103729
*CONN
*P la_data_in[18] I
*I *419:la_data_in[18] I *D user_proj_example
*CAP
1 la_data_in[18] 0.0037811
2 *419:la_data_in[18] 0.00226154
3 *124:17 0.0162
4 *124:15 0.0177196
5 *419:la_data_in[18] *170:31 0
6 *419:la_data_in[18] *287:13 0.000125283
7 *419:la_data_in[18] *303:11 0.000115388
8 *124:15 *131:9 0.00144937
9 *124:15 *206:6 0.00103521
10 *124:15 *258:15 0.000376835
11 *124:15 *266:15 0.00087897
12 *124:17 *128:17 0
13 *124:17 *189:15 0.0206996
14 *124:17 *201:17 0.0380756
15 *124:17 *204:15 0
16 *124:17 *205:15 0.00101015
17 *124:17 *240:14 0
*RES
1 la_data_in[18] *124:15 47.1626 
2 *124:15 *124:17 101.01 
3 *124:17 *419:la_data_in[18] 29.8466 
*END

*D_NET *125 0.130881
*CONN
*P la_data_in[19] I
*I *419:la_data_in[19] I *D user_proj_example
*CAP
1 la_data_in[19] 0.00175776
2 *419:la_data_in[19] 0.000676521
3 *125:15 0.0156137
4 *125:13 0.0166949
5 *125:13 la_data_out[19] 0
6 *125:13 *207:7 0
7 *125:15 *136:25 0.000743191
8 *125:15 *139:17 0.00747924
9 *125:15 *141:21 0.0013409
10 *120:23 *125:15 0.00780894
11 *121:23 *125:15 0.0787659
*RES
1 la_data_in[19] *125:13 23.224 
2 *125:13 *125:15 242.84 
3 *125:15 *419:la_data_in[19] 16.932 
*END

*D_NET *126 0.150184
*CONN
*P la_data_in[1] I
*I *419:la_data_in[1] I *D user_proj_example
*CAP
1 la_data_in[1] 0.00158901
2 *419:la_data_in[1] 0.00111468
3 *126:15 0.0237549
4 *126:13 0.0242292
5 *126:13 *193:10 0
6 *126:15 *159:15 0.0151176
7 *126:15 *183:12 0.00712778
8 *126:15 *243:15 0
9 *126:15 *255:15 0.00313983
10 *126:15 *305:11 0
11 *116:15 *126:15 0.0741107
*RES
1 la_data_in[1] *126:13 22.392 
2 *126:13 *126:15 315.848 
3 *126:15 *419:la_data_in[1] 22.288 
*END

*D_NET *127 0.147938
*CONN
*P la_data_in[20] I
*I *419:la_data_in[20] I *D user_proj_example
*CAP
1 la_data_in[20] 0.00410535
2 *419:la_data_in[20] 0.00336
3 *127:17 0.0166891
4 *127:15 0.0174344
5 *419:la_data_in[20] *265:21 0.00020889
6 *127:15 *206:6 0.00111873
7 *127:15 *258:15 0.000100623
8 *127:15 *266:15 0.00022281
9 *127:17 *128:17 0
10 *127:17 *182:14 0.0725781
11 *127:17 *188:15 0
12 *127:17 *203:14 0.0321202
*RES
1 la_data_in[20] *127:15 44.3174 
2 *127:15 *127:17 100.386 
3 *127:17 *419:la_data_in[20] 37.5574 
*END

*D_NET *128 0.135477
*CONN
*P la_data_in[21] I
*I *419:la_data_in[21] I *D user_proj_example
*CAP
1 la_data_in[21] 0.00353471
2 *419:la_data_in[21] 0.00308999
3 *128:17 0.017349
4 *128:15 0.0177937
5 *419:la_data_in[21] *265:21 0.000295328
6 *128:15 la_data_out[22] 0
7 *128:15 *419:la_oenb[36] 0.000337165
8 *128:15 *206:6 0.000367033
9 *128:15 *208:16 0.000357149
10 *128:17 *182:14 0
11 *128:17 *203:14 0
12 *128:17 *204:15 0.030578
13 *128:17 *212:16 0.0214197
14 *128:17 *240:14 0.0403556
15 *124:17 *128:17 0
16 *127:17 *128:17 0
*RES
1 la_data_in[21] *128:15 39.4369 
2 *128:15 *128:17 99.05 
3 *128:17 *419:la_data_in[21] 35.1729 
*END

*D_NET *129 0.172416
*CONN
*P la_data_in[22] I
*I *419:la_data_in[22] I *D user_proj_example
*CAP
1 la_data_in[22] 0.0005772
2 *419:la_data_in[22] 0.000278978
3 *129:9 0.00380586
4 *129:7 0.00410408
5 *129:7 *209:7 0.000242172
6 *129:9 la_data_out[1] 1.2995e-05
7 *129:9 *137:9 0.000465287
8 *129:9 *140:9 0.00208886
9 *129:9 *187:9 0.0712094
10 *129:9 *191:12 0.00733943
11 *129:9 *195:9 0.0771033
12 *129:9 *207:9 0.00518841
*RES
1 la_data_in[22] *129:7 8.296 
2 *129:7 *129:9 229.944 
3 *129:9 *419:la_data_in[22] 5.8 
*END

*D_NET *130 0.177484
*CONN
*P la_data_in[23] I
*I *419:la_data_in[23] I *D user_proj_example
*CAP
1 la_data_in[23] 0.00160107
2 *419:la_data_in[23] 0.000504135
3 *130:19 0.00227086
4 *130:17 0.0033678
5 *130:17 *419:la_data_in[38] 1.29083e-05
6 *130:19 *135:17 0.00614257
7 *130:19 *138:23 0.0479198
8 *130:19 *159:15 0.000857796
9 *130:19 *175:15 0.000643139
10 *130:19 *197:12 0.0696664
11 *130:19 *255:15 0.0044909
12 *130:19 *260:23 0.00170913
13 *116:15 *130:19 0.0346134
14 *118:15 *130:19 0.00299665
15 *120:23 *130:19 0.000687158
*RES
1 la_data_in[23] *130:17 22.808 
2 *130:17 *130:19 225.992 
3 *130:19 *419:la_data_in[23] 16.1 
*END

*D_NET *131 0.0979085
*CONN
*P la_data_in[24] I
*I *419:la_data_in[24] I *D user_proj_example
*CAP
1 la_data_in[24] 0.000952797
2 *419:la_data_in[24] 0
3 *131:9 0.00777268
4 *131:7 0.00872547
5 *131:7 *419:la_oenb[38] 5.64186e-05
6 *131:9 la_data_out[12] 0.00267628
7 *131:9 la_data_out[3] 0.00028351
8 *131:9 la_data_out[7] 0.000703058
9 *131:9 la_data_out[9] 0.000337547
10 *131:9 *419:la_oenb[30] 0.000548303
11 *131:9 *419:la_oenb[32] 0.000570578
12 *131:9 *144:15 0.00172991
13 *131:9 *170:23 0.000264627
14 *131:9 *177:15 0.000360709
15 *131:9 *178:13 0.00213411
16 *131:9 *178:15 0.00551916
17 *131:9 *180:13 0.000253489
18 *131:9 *196:15 0.000627959
19 *131:9 *199:12 0.0039966
20 *131:9 *199:14 0.0147942
21 *131:9 *203:12 3.71243e-05
22 *131:9 *206:6 0.0261765
23 *131:9 *245:11 0.000325199
24 *131:9 *246:11 0.000292879
25 *131:9 *258:15 0.00636741
26 *131:9 *266:15 9.28165e-05
27 *131:9 *287:11 0.0031833
28 *131:9 *287:13 0.0013161
29 *131:9 *303:11 0.00149704
30 *131:9 *305:11 0.00103524
31 *122:15 *131:9 0.00275128
32 *122:19 *131:9 0.00107688
33 *122:21 *131:9 0
34 *124:15 *131:9 0.00144937
*RES
1 la_data_in[24] *131:7 10.168 
2 *131:7 *131:9 221 
3 *131:9 *419:la_data_in[24] 4.5 
*END

*D_NET *132 0.0622155
*CONN
*P la_data_in[25] I
*I *419:la_data_in[25] I *D user_proj_example
*CAP
1 la_data_in[25] 0.0024844
2 *419:la_data_in[25] 0.00141646
3 *132:17 0.0227205
4 *132:15 0.0237884
5 *419:la_data_in[25] *170:23 0
6 *132:15 *206:6 0.00135612
7 *132:15 *208:20 0.00134624
8 *132:15 *211:10 0
9 *132:17 *145:23 0
10 *132:17 *184:12 0
11 *132:17 *239:17 0.00910341
*RES
1 la_data_in[25] *132:15 32.5729 
2 *132:15 *132:17 91.3882 
3 *132:17 *419:la_data_in[25] 22.8489 
*END

*D_NET *133 0.130045
*CONN
*P la_data_in[26] I
*I *419:la_data_in[26] I *D user_proj_example
*CAP
1 la_data_in[26] 0.000562184
2 *419:la_data_in[26] 0.000292379
3 *133:9 0.0089687
4 *133:7 0.0092385
5 *419:la_data_in[26] *175:13 0.000177159
6 *133:9 *142:9 0.00842299
7 *133:9 *149:9 0.000300333
8 *133:9 *191:12 0.00734564
9 *133:9 *195:9 0.0767516
10 *133:9 *207:9 0.00124886
11 *133:9 *209:9 0.016737
*RES
1 la_data_in[26] *133:7 7.88 
2 *133:7 *133:9 212.264 
3 *133:9 *419:la_data_in[26] 6.216 
*END

*D_NET *134 0.171118
*CONN
*P la_data_in[27] I
*I *419:la_data_in[27] I *D user_proj_example
*CAP
1 la_data_in[27] 0.000924344
2 *419:la_data_in[27] 0.000190508
3 *134:15 0.000834487
4 *134:13 0.00156832
5 *134:15 *144:15 0.0356569
6 *134:15 *177:15 0.00249787
7 *134:15 *178:13 0.000586672
8 *134:15 *178:15 0.000159169
9 *134:15 *180:13 0.000129555
10 *134:15 *181:12 0.000780282
11 *134:15 *198:12 0.098908
12 *134:15 *199:12 0.00104023
13 *134:15 *199:14 0.00150118
14 *134:15 *258:15 0.0263401
*RES
1 la_data_in[27] *134:13 18.778 
2 *134:13 *134:15 88.5373 
3 *134:15 *419:la_data_in[27] 14.982 
*END

*D_NET *135 0.163506
*CONN
*P la_data_in[28] I
*I *419:la_data_in[28] I *D user_proj_example
*CAP
1 la_data_in[28] 0.00149856
2 *419:la_data_in[28] 0.000535905
3 *135:17 0.017002
4 *135:15 0.0179646
5 *135:15 *419:la_oenb[41] 6.4972e-05
6 *135:15 *144:15 0.000147563
7 *135:15 *199:14 0.000399332
8 *135:15 *206:6 0.00135942
9 *135:15 *214:10 0.000331021
10 *135:17 la_data_out[26] 0.000134874
11 *135:17 *136:25 0.0900173
12 *135:17 *138:23 0.00659048
13 *135:17 *139:17 0.000325712
14 *135:17 *193:12 0.00242466
15 *135:17 *197:12 0.00567589
16 *135:17 *211:12 0.00140011
17 *135:17 *255:15 0.00321847
18 *135:17 *260:21 0.000711591
19 *135:17 *260:23 0.00391508
20 *116:15 *135:17 0.00055966
21 *120:23 *135:17 0.00308596
22 *130:19 *135:17 0.00614257
*RES
1 la_data_in[28] *135:15 25.8871 
2 *135:15 *135:17 85.7755 
3 *135:17 *419:la_data_in[28] 16.1631 
*END

*D_NET *136 0.191119
*CONN
*P la_data_in[29] I
*I *419:la_data_in[29] I *D user_proj_example
*CAP
1 la_data_in[29] 0.00212991
2 *419:la_data_in[29] 0.000598217
3 *136:25 0.0031417
4 *136:23 0.0046734
5 *136:23 *419:la_data_in[42] 4.39319e-05
6 *136:23 *144:15 0.000149896
7 *136:23 *200:8 0.000316318
8 *136:23 *206:6 0.00164583
9 *136:23 *215:7 0
10 *136:23 *269:13 0.000104752
11 *136:25 *139:17 0.00109442
12 *136:25 *141:21 0.0650785
13 *136:25 *194:12 0
14 *136:25 *214:12 0.000202656
15 *118:15 *136:25 0.000769056
16 *120:23 *136:25 0.0187981
17 *121:23 *136:25 0.00161227
18 *125:15 *136:25 0.000743191
19 *135:17 *136:25 0.0900173
*RES
1 la_data_in[29] *136:23 29.1334 
2 *136:23 *136:25 83.0136 
3 *136:25 *419:la_data_in[29] 16.4974 
*END

*D_NET *137 0.15489
*CONN
*P la_data_in[2] I
*I *419:la_data_in[2] I *D user_proj_example
*CAP
1 la_data_in[2] 0.000468593
2 *419:la_data_in[2] 0.000425625
3 *137:17 0.00119555
4 *137:15 0.000952434
5 *137:9 0.0189779
6 *137:7 0.019264
7 *137:9 la_data_out[1] 0.000309965
8 *137:9 *179:17 0.00335485
9 *137:9 *179:25 0.0267837
10 *137:9 *187:9 0
11 *137:9 *234:9 0
12 *137:9 *239:9 0.00433532
13 *137:9 *243:29 0.000777524
14 *137:9 *252:9 0
15 *137:9 *253:9 0
16 *137:9 *256:9 0
17 *137:9 *257:9 0
18 *137:17 *179:17 0.00317306
19 *137:17 *201:9 0.0401513
20 *137:17 *223:9 0.0283073
21 *137:17 *243:29 0.00594772
22 *419:la_data_in[11] *137:9 0
23 *119:9 *137:9 0
24 *123:9 *137:9 0
25 *129:9 *137:9 0.000465287
*RES
1 la_data_in[2] *137:7 7.048 
2 *137:7 *137:9 211.224 
3 *137:9 *137:15 9.936 
4 *137:15 *137:17 105.976 
5 *137:17 *419:la_data_in[2] 7.88 
*END

*D_NET *138 0.160664
*CONN
*P la_data_in[30] I
*I *419:la_data_in[30] I *D user_proj_example
*CAP
1 la_data_in[30] 0.00182911
2 *419:la_data_in[30] 0.00042799
3 *138:23 0.00157178
4 *138:21 0.0029729
5 *419:la_data_in[30] la_data_out[12] 0.000323613
6 *419:la_data_in[30] *245:13 0
7 *138:21 *269:13 0.000104752
8 *138:23 *139:17 0.0708401
9 *138:23 *141:21 0.000352815
10 *138:23 *197:12 0.0031198
11 *138:23 *211:12 0.0213465
12 *118:15 *138:23 0.0015122
13 *121:23 *138:23 0.00175257
14 *130:19 *138:23 0.0479198
15 *135:17 *138:23 0.00659048
*RES
1 la_data_in[30] *138:21 24.68 
2 *138:21 *138:23 193.544 
3 *138:23 *419:la_data_in[30] 16.308 
*END

*D_NET *139 0.129516
*CONN
*P la_data_in[31] I
*I *419:la_data_in[31] I *D user_proj_example
*CAP
1 la_data_in[31] 0.00160583
2 *419:la_data_in[31] 0.000631719
3 *139:17 0.00488835
4 *139:15 0.00586246
5 *139:15 la_data_out[31] 0
6 *139:15 *419:la_oenb[43] 0.000177589
7 *139:17 *141:21 0.00506027
8 *139:17 *147:27 0.00608433